Version 4
SHEET 1 2000 680
WIRE 1040 -496 1008 -496
WIRE 1136 -496 1104 -496
WIRE 1168 -496 1136 -496
WIRE 1264 -496 1232 -496
WIRE 1376 -496 1264 -496
WIRE 1136 -464 1136 -496
WIRE 1264 -464 1264 -496
WIRE 912 -368 880 -368
WIRE 1008 -368 1008 -496
WIRE 1008 -368 976 -368
WIRE 1040 -368 1008 -368
WIRE 1136 -368 1136 -400
WIRE 1136 -368 1104 -368
WIRE 1264 -368 1264 -400
WIRE 1008 -336 1008 -368
WIRE 1136 -336 1136 -368
WIRE 784 -240 752 -240
WIRE 880 -240 880 -368
WIRE 880 -240 848 -240
WIRE 912 -240 880 -240
WIRE 1008 -240 1008 -272
WIRE 1008 -240 976 -240
WIRE 1136 -240 1136 -272
WIRE 880 -208 880 -240
WIRE 1008 -208 1008 -240
WIRE 656 -112 624 -112
WIRE 752 -112 752 -240
WIRE 752 -112 720 -112
WIRE 784 -112 752 -112
WIRE 880 -112 880 -144
WIRE 880 -112 848 -112
WIRE 1008 -112 1008 -144
WIRE 752 -80 752 -112
WIRE 880 -80 880 -112
WIRE 528 16 496 16
WIRE 624 16 624 -112
WIRE 624 16 592 16
WIRE 656 16 624 16
WIRE 752 16 752 -16
WIRE 752 16 720 16
WIRE 880 16 880 -16
WIRE 624 48 624 16
WIRE 752 48 752 16
WIRE 224 144 112 144
WIRE 272 144 224 144
WIRE 384 144 352 144
WIRE 496 144 496 16
WIRE 496 144 384 144
WIRE 528 144 496 144
WIRE 624 144 624 112
WIRE 624 144 592 144
WIRE 752 144 752 112
WIRE 624 176 624 144
WIRE 1008 208 880 208
WIRE 1088 208 1008 208
WIRE 1376 208 1376 -496
WIRE 1376 208 1088 208
WIRE 224 224 224 144
WIRE 384 224 384 144
WIRE 1088 240 1088 208
WIRE 624 272 624 240
WIRE 112 320 112 144
WIRE 112 320 48 320
WIRE 144 320 112 320
WIRE 880 320 880 288
WIRE 880 320 464 320
WIRE 48 336 48 320
WIRE 880 352 880 320
WIRE 1088 352 1088 320
WIRE 48 464 48 416
WIRE 304 464 304 416
WIRE 304 464 48 464
WIRE 880 464 880 432
WIRE 48 496 48 464
FLAG 624 272 0
FLAG 752 144 0
FLAG 880 464 0
FLAG 48 496 0
FLAG 1088 352 0
FLAG 880 16 0
FLAG 1008 -112 0
FLAG 1136 -240 0
FLAG 1264 -368 0
FLAG 1008 208 V_OUT
FLAG 624 144 S1
FLAG 752 16 S2
FLAG 880 -112 S3
FLAG 1008 -240 S4
FLAG 1136 -368 S5
SYMBOL PowerProducts\\LT1613 304 320 R0
SYMATTR InstName U1
SYMBOL ind 256 160 R270
WINDOW 0 32 56 VTop 2
WINDOW 3 5 56 VBottom 2
SYMATTR InstName L1
SYMATTR Value 3µH
SYMBOL voltage 48 320 R0
WINDOW 123 0 0 Left 2
WINDOW 39 0 0 Left 2
SYMATTR InstName V1
SYMATTR Value 10v
SYMBOL schottky 528 160 R270
WINDOW 0 32 32 VTop 2
WINDOW 3 0 32 VBottom 2
SYMATTR InstName D1
SYMATTR Value MBRS360
SYMATTR Description Diode
SYMATTR Type diode
SYMBOL schottky 656 32 R270
WINDOW 0 32 32 VTop 2
WINDOW 3 0 32 VBottom 2
SYMATTR InstName D2
SYMATTR Value MBRS360
SYMATTR Description Diode
SYMATTR Type diode
SYMBOL schottky 640 112 R180
WINDOW 0 24 64 Left 2
WINDOW 3 24 0 Left 2
SYMATTR InstName D3
SYMATTR Value MBRS360
SYMATTR Description Diode
SYMATTR Type diode
SYMBOL cap 592 0 R90
WINDOW 0 0 32 VBottom 2
WINDOW 3 32 32 VTop 2
SYMATTR InstName C1
SYMATTR Value .1µF
SYMBOL cap 640 240 R180
WINDOW 0 24 56 Left 2
WINDOW 3 24 8 Left 2
SYMATTR InstName C2
SYMATTR Value .1µF
SYMBOL cap 768 112 R180
WINDOW 0 24 56 Left 2
WINDOW 3 24 8 Left 2
SYMATTR InstName C3
SYMATTR Value .1µF
SYMBOL res 864 192 R0
SYMATTR InstName R1
SYMATTR Value 732k
SYMBOL res 864 336 R0
SYMATTR InstName R2
SYMATTR Value 10k
SYMBOL res 1072 224 R0
SYMATTR InstName R3
SYMATTR Value 5000k
SYMBOL schottky 768 -16 R180
WINDOW 0 24 64 Left 2
WINDOW 3 24 0 Left 2
SYMATTR InstName D4
SYMATTR Value MBRS360
SYMATTR Description Diode
SYMATTR Type diode
SYMBOL schottky 784 -96 R270
WINDOW 0 32 32 VTop 2
WINDOW 3 0 32 VBottom 2
SYMATTR InstName D5
SYMATTR Value MBRS360
SYMATTR Description Diode
SYMATTR Type diode
SYMBOL schottky 896 -144 R180
WINDOW 0 24 64 Left 2
WINDOW 3 24 0 Left 2
SYMATTR InstName D6
SYMATTR Value MBRS360
SYMATTR Description Diode
SYMATTR Type diode
SYMBOL schottky 912 -224 R270
WINDOW 0 32 32 VTop 2
WINDOW 3 0 32 VBottom 2
SYMATTR InstName D7
SYMATTR Value MBRS360
SYMATTR Description Diode
SYMATTR Type diode
SYMBOL cap 864 -80 R0
SYMATTR InstName C4
SYMATTR Value .1µF
SYMBOL cap 992 -208 R0
SYMATTR InstName C5
SYMATTR Value .1µF
SYMBOL cap 720 -128 R90
WINDOW 0 0 32 VBottom 2
WINDOW 3 32 32 VTop 2
SYMATTR InstName C6
SYMATTR Value .1µF
SYMBOL cap 848 -256 R90
WINDOW 0 0 32 VBottom 2
WINDOW 3 32 32 VTop 2
SYMATTR InstName C7
SYMATTR Value .1µF
SYMBOL schottky 1024 -272 R180
WINDOW 0 24 64 Left 2
WINDOW 3 24 0 Left 2
SYMATTR InstName D8
SYMATTR Value MBRS360
SYMATTR Description Diode
SYMATTR Type diode
SYMBOL schottky 1040 -352 R270
WINDOW 0 32 32 VTop 2
WINDOW 3 0 32 VBottom 2
SYMATTR InstName D9
SYMATTR Value MBRS360
SYMATTR Description Diode
SYMATTR Type diode
SYMBOL schottky 1152 -400 R180
WINDOW 0 24 64 Left 2
WINDOW 3 24 0 Left 2
SYMATTR InstName D10
SYMATTR Value MBRS360
SYMATTR Description Diode
SYMATTR Type diode
SYMBOL schottky 1168 -480 R270
WINDOW 0 32 32 VTop 2
WINDOW 3 0 32 VBottom 2
SYMATTR InstName D11
SYMATTR Value MBRS360
SYMATTR Description Diode
SYMATTR Type diode
SYMBOL cap 1120 -336 R0
SYMATTR InstName C8
SYMATTR Value .1µF
SYMBOL cap 1248 -464 R0
SYMATTR InstName C9
SYMATTR Value .1µF
SYMBOL cap 976 -384 R90
WINDOW 0 0 32 VBottom 2
WINDOW 3 32 32 VTop 2
SYMATTR InstName C10
SYMATTR Value .1µF
SYMBOL cap 1104 -512 R90
WINDOW 0 0 32 VBottom 2
WINDOW 3 32 32 VTop 2
SYMATTR InstName C11
SYMATTR Value .1µF
TEXT 16 520 Left 2 !.tran .003
